9
Coordinates from ORCA-job trial_li3s6_1
  Li  -0.52335553050043     -0.56647127600071      1.79318550587797
  Li  0.09782571371295     -0.96086106069935     -1.47352570798082
  S   1.79423552115885     -1.60169601728366      0.43353859937626
  S   -1.18215974685987      1.06664002596687     -0.96754344599094
  Li  1.11459600201421      1.46818683708765      0.73670095068643
  S   -0.06698923186609     -2.40478551183216      0.31924095919106
  S   -1.26568570116621      1.52447001325804      1.03524555053597
  S   0.76100479792660      1.22508338775680     -1.59904905010048
  S   1.90156817557999     -0.37154639825348      2.04113663840455
